test/test_files/input_tests/raw_remote_shunt_group.raw
0, 100.0, 33, 0, 1, 60.0
1,'SLACK',230.0,3,1,1,1,1.0,0.0,1.1,0.9,1.1,0.9
2,'SHUNT1',230.0,1,1,1,1,1.0,0.0,1.1,0.9,1.1,0.9
3,'SHUNT2',230.0,1,1,1,1,1.0,0.0,1.1,0.9,1.1,0.9
0 / END OF BUS DATA, BEGIN LOAD DATA
0 / END OF LOAD DATA, BEGIN FIXED SHUNT DATA
0 / END OF FIXED SHUNT DATA, BEGIN GENERATOR DATA
0 / END OF GENERATOR DATA, BEGIN BRANCH DATA
0 / END OF BRANCH DATA, BEGIN TRANSFORMER DATA
0 / END OF TRANSFORMER DATA, BEGIN AREA DATA
0 / END OF AREA DATA, BEGIN TWO-TERMINAL DC DATA
0 / END OF TWO-TERMINAL DC DATA, BEGIN VSC DC LINE DATA
0 / END OF VSC DC LINE DATA, BEGIN IMPEDANCE CORRECTION DATA
0 / END OF IMPEDANCE CORRECTION DATA, BEGIN MULTI-TERMINAL DC DATA
0 / END OF MULTI-TERMINAL DC DATA, BEGIN MULTI-SECTION LINE DATA
0 / END OF MULTI-SECTION LINE DATA, BEGIN ZONE DATA
0 / END OF ZONE DATA, BEGIN INTER-AREA TRANSFER DATA
0 / END OF INTER-AREA TRANSFER DATA, BEGIN OWNER DATA
0 / END OF OWNER DATA, BEGIN FACTS DEVICE DATA
0 / END OF OWNER DATA, BEGIN SWITCHED SHUNT DATA
2,1,0,1,1.05,0.95,1,100.0,0,0.0,1,5.0
3,1,0,1,1.05,0.95,1,100.0,0,0.0,1,5.0
0 / END OF SWITCHED SHUNT DATA, BEGIN GNE DATA
0 / END OF GNE DATA
